/*--------------------------------*- C++ -*----------------------------------*\
| =========                 |                                                 |
| \\      /  F ield         | OpenFOAM: The Open Source CFD Toolbox           |
|  \\    /   O peration     | Version:  2212                                  |
|   \\  /    A nd           | Website:  www.openfoam.com                      |
|    \\/     M anipulation  |                                                 |
\*---------------------------------------------------------------------------*/
FoamFile
{
    version     2.0;
    format      ascii;
    arch        "LSB;label=32;scalar=64";
    class       extendedFeatureEdgeMesh;
    location    "constant/extendedFeatureEdgeMesh";
    object      sphere1.extendedFeatureEdgeMesh;
}
// * * * * * * * * * * * * * * * * * * * * * * * * * * * * * * * * * * * * * //

// points

8066
(
(-0 0.370475 -0.335779)
(0 0.386505 -0.317197)
(0.018965 0.38604 -0.317197)
(0.018178 0.370029 -0.335779)
(0 0.428864 0.257051)
(-0 0.415734 0.277785)
(0.020399 0.415234 0.277785)
(0.021043 0.428348 0.257051)
(0 0.353553 -0.353553)
(0.017348 0.353128 -0.353553)
(0 0.440961 0.235698)
(0.021637 0.440429 0.235698)
(0 0.335779 -0.370476)
(0.016476 0.335375 -0.370476)
(0 0.451995 0.213778)
(0.022178 0.45145 0.213778)
(-0 0.317196 -0.386505)
(0.015564 0.316815 -0.386505)
(0 0.46194 0.191342)
(0.022666 0.461383 0.191342)
(0 0.297849 -0.401604)
(0.014615 0.297491 -0.401604)
(0 0.470772 0.168445)
(0.0231 0.470205 0.168445)
(0 0.277785 -0.415735)
(0.01363 0.277451 -0.415735)
(0 0.47847 0.145142)
(0.023477 0.477894 0.145142)
(0 0.257051 -0.428864)
(0.012613 0.256742 -0.428864)
(0 0.485016 0.12149)
(0.023799 0.484431 0.12149)
(0 0.024534 0.499398)
(0 0 0.5)
(0.001204 0.024504 0.499398)
(0 0.235698 -0.440961)
(0.011565 0.235414 -0.440961)
(0 0.490393 0.097545)
(0.024062 0.489802 0.097545)
(0 0.049009 0.497592)
(0.002405 0.04895 0.497592)
(-0 0.213777 -0.451995)
(0.01049 0.21352 -0.451995)
(0 0.494588 0.073365)
(0.024268 0.493993 0.073365)
(0 0.073365 0.494588)
(0.0036 0.073277 0.494588)
(0 0.191342 -0.46194)
(0.009389 0.191111 -0.46194)
(0 0.497592 0.049009)
(0.024416 0.496993 0.049009)
(0 0.097545 0.490393)
(0.004786 0.097428 0.490393)
(0 0.168445 -0.470772)
(0.008265 0.168242 -0.470772)
(0 0.499397 0.024534)
(0.024504 0.498796 0.024534)
(0 0.12149 0.485016)
(0.005961 0.121344 0.485016)
(0 0.145142 -0.47847)
(0.007122 0.144967 -0.47847)
(0 0.499999 0)
(0.024534 0.499398 0)
(0 0.145142 0.47847)
(0.007122 0.144967 0.47847)
(0 0.12149 -0.485016)
(0.005961 0.121344 -0.485016)
(0 0.499398 -0.024534)
(0.024504 0.498796 -0.024534)
(0 0.168445 0.470772)
(0.008265 0.168242 0.470772)
(0 0.097545 -0.490393)
(0.004786 0.097428 -0.490393)
(0 0.497592 -0.049009)
(0.024416 0.496993 -0.049009)
(0 0.191342 0.46194)
(0.009389 0.191111 0.46194)
(0 0.073365 -0.494588)
(0.0036 0.073277 -0.494588)
(0 0.494588 -0.073365)
(0.024268 0.493993 -0.073365)
(-0 0.213777 0.451995)
(0.01049 0.21352 0.451995)
(0 0.049009 -0.497592)
(0.002405 0.04895 -0.497592)
(0 0.490392 -0.097545)
(0.024062 0.489802 -0.097545)
(0 0.235698 0.440961)
(0.011565 0.235414 0.440961)
(0 0.024534 -0.499398)
(0.001204 0.024504 -0.499398)
(0 0.485016 -0.12149)
(0.023799 0.484431 -0.12149)
(0 0.257051 0.428864)
(0.012613 0.256742 0.428864)
(0 0 -0.5)
(0 0.47847 -0.145142)
(0.023477 0.477894 -0.145142)
(0 0.277785 0.415735)
(0.01363 0.277451 0.415735)
(0 0.470772 -0.168445)
(0.0231 0.470205 -0.168445)
(0 0.29785 0.401604)
(0.014615 0.297491 0.401604)
(0 0.46194 -0.191342)
(0.022666 0.461383 -0.191342)
(-0 0.317196 0.386505)
(0.015564 0.316815 0.386505)
(0 0.451993 -0.213778)
(0.022178 0.45145 -0.213778)
(0 0.335779 0.370476)
(0.016476 0.335375 0.370476)
(0 0.440961 -0.235698)
(0.021637 0.440429 -0.235698)
(0 0.353553 0.353553)
(0.017348 0.353128 0.353553)
(0 0.428864 -0.257051)
(0.021043 0.428348 -0.257051)
(-0 0.370475 0.335779)
(0.018178 0.370029 0.335779)
(-0 0.415734 -0.277785)
(0.020399 0.415234 -0.277785)
(0 0.386504 0.317197)
(0.018965 0.38604 0.317197)
(0 0.401604 -0.29785)
(0.019706 0.40112 -0.29785)
(0 0.401604 0.29785)
(0.019706 0.40112 0.29785)
(0.048773 0.495196 -0.049009)
(0.048478 0.492207 -0.073365)
(0.018755 0.19042 0.46194)
(0.020954 0.212748 0.451995)
(0.007191 0.073012 -0.494588)
(0.004804 0.048773 -0.497592)
(0.048067 0.488031 -0.097545)
(0.023102 0.234563 0.440961)
(0.002405 0.024416 -0.499398)
(0.04754 0.48268 -0.12149)
(0.025195 0.255814 0.428864)
(0.046898 0.476166 -0.145142)
(0.027228 0.276448 0.415735)
(0.046144 0.468505 -0.168445)
(0.029194 0.296415 0.401604)
(0.045278 0.459715 -0.191342)
(0.031091 0.315669 0.386505)
(0.044303 0.449818 -0.213778)
(0.032912 0.334163 0.370476)
(0.043222 0.438837 -0.235698)
(0.034654 0.351851 0.353553)
(0.042036 0.426799 -0.257051)
(0.036313 0.368692 0.335779)
(0.040749 0.413733 -0.277785)
(0.037884 0.384644 0.317197)
(0.039364 0.39967 -0.29785)
(0.039364 0.39967 0.29785)
(0.037884 0.384644 -0.317197)
(0.040749 0.413733 0.277785)
(0.036313 0.368692 -0.335779)
(0.042036 0.426799 0.257051)
(0.034654 0.351851 -0.353553)
(0.043222 0.438837 0.235698)
(0.032912 0.334163 -0.370476)
(0.044303 0.449818 0.213778)
(0.031091 0.315669 -0.386505)
(0.045278 0.459715 0.191342)
(0.029194 0.296415 -0.401604)
(0.046144 0.468505 0.168445)
(0.027228 0.276448 -0.415735)
(0.046898 0.476166 0.145142)
(0.025195 0.255814 -0.428864)
(0.04754 0.48268 0.12149)
(0.002405 0.024416 0.499398)
(0.023102 0.234563 -0.440961)
(0.048067 0.488031 0.097545)
(0.004804 0.048773 0.497592)
(0.020954 0.212748 -0.451995)
(0.048478 0.492207 0.073365)
(0.007191 0.073012 0.494588)
(0.018755 0.19042 -0.46194)
(0.048773 0.495196 0.049009)
(0.009561 0.097075 0.490393)
(0.01651 0.167634 -0.470772)
(0.04895 0.496993 0.024534)
(0.011908 0.120905 0.485016)
(0.014226 0.144443 -0.47847)
(0.049009 0.497592 0)
(0.014226 0.144443 0.47847)
(0.011908 0.120905 -0.485016)
(0.04895 0.496993 -0.024534)
(0.01651 0.167634 0.470772)
(0.009561 0.097075 -0.490393)
(0.071956 0.485085 -0.097545)
(0.071167 0.479766 -0.12149)
(0.034584 0.233147 0.440961)
(0.037717 0.254269 0.428864)
(0.0036 0.024268 -0.499398)
(0.070206 0.473291 -0.145142)
(0.04076 0.274779 0.415735)
(0.069077 0.465677 -0.168445)
(0.043704 0.294626 0.401604)
(0.067781 0.45694 -0.191342)
(0.046542 0.313763 0.386505)
(0.066321 0.447102 -0.213778)
(0.049269 0.332145 0.370476)
(0.064702 0.436188 -0.235698)
(0.051877 0.349727 0.353553)
(0.062927 0.424222 -0.257051)
(0.05436 0.366466 0.335779)
(0.061001 0.411235 -0.277785)
(0.056712 0.382322 0.317197)
(0.058928 0.397257 -0.29785)
(0.058928 0.397257 0.29785)
(0.056712 0.382322 -0.317197)
(0.061001 0.411235 0.277785)
(0.05436 0.366466 -0.335779)
(0.062927 0.424222 0.257051)
(0.051877 0.349727 -0.353553)
(0.064702 0.436188 0.235698)
(0.049269 0.332145 -0.370476)
(0.066321 0.447102 0.213778)
(0.046542 0.313763 -0.386505)
(0.067781 0.45694 0.191342)
(0.043704 0.294626 -0.401604)
(0.069077 0.465677 0.168445)
(0.04076 0.274779 -0.415735)
(0.070206 0.473291 0.145142)
(0.037717 0.254269 -0.428864)
(0.071167 0.479766 0.12149)
(0.0036 0.024268 0.499398)
(0.034584 0.233147 -0.440961)
(0.071956 0.485085 0.097545)
(0.007191 0.048478 0.497592)
(0.031368 0.211464 -0.451995)
(0.072571 0.489235 0.073365)
(0.010765 0.072571 0.494588)
(0.028076 0.189271 -0.46194)
(0.073012 0.492207 0.049009)
(0.014313 0.096489 0.490393)
(0.024716 0.166622 -0.470772)
(0.073277 0.493993 0.024534)
(0.017826 0.120175 0.485016)
(0.021297 0.143571 -0.47847)
(0.073365 0.494588 0)
(0.021297 0.143571 0.47847)
(0.017826 0.120175 -0.485016)
(0.073277 0.493993 -0.024534)
(0.024716 0.166622 0.470772)
(0.014313 0.096489 -0.490393)
(0.073012 0.492207 -0.049009)
(0.028076 0.189271 0.46194)
(0.010765 0.072571 -0.494588)
(0.072571 0.489235 -0.073365)
(0.031368 0.211464 0.451995)
(0.007191 0.048478 -0.497592)
(0.093345 0.469276 -0.145142)
(0.091843 0.461726 -0.168445)
(0.054193 0.272448 0.415735)
(0.058108 0.292127 0.401604)
(0.09012 0.453064 -0.191342)
(0.061882 0.311102 0.386505)
(0.08818 0.44331 -0.213778)
(0.065507 0.329328 0.370476)
(0.086027 0.432488 -0.235698)
(0.068975 0.34676 0.353553)
(0.083667 0.420624 -0.257051)
(0.072276 0.363357 0.335779)
(0.081106 0.407747 -0.277785)
(0.075403 0.379079 0.317197)
(0.078349 0.393887 -0.29785)
(0.078349 0.393887 0.29785)
(0.075403 0.379079 -0.317197)
(0.081106 0.407747 0.277785)
(0.072276 0.363357 -0.335779)
(0.083667 0.420624 0.257051)
(0.068975 0.34676 -0.353553)
(0.086027 0.432488 0.235698)
(0.065507 0.329328 -0.370476)
(0.08818 0.44331 0.213778)
(0.061882 0.311102 -0.386505)
(0.09012 0.453064 0.191342)
(0.058108 0.292127 -0.401604)
(0.091843 0.461726 0.168445)
(0.054193 0.272448 -0.415735)
(0.093345 0.469276 0.145142)
(0.050148 0.252112 -0.428864)
(0.094622 0.475696 0.12149)
(0.004786 0.024062 0.499398)
(0.045982 0.231169 -0.440961)
(0.095671 0.48097 0.097545)
(0.009561 0.048067 0.497592)
(0.041706 0.20967 -0.451995)
(0.096489 0.485085 0.073365)
(0.014313 0.071956 0.494588)
(0.037329 0.187665 -0.46194)
(0.097075 0.488031 0.049009)
(0.01903 0.095671 0.490393)
(0.032862 0.165208 -0.470772)
(0.097428 0.489802 0.024534)
(0.023702 0.119156 0.485016)
(0.028316 0.142353 -0.47847)
(0.097545 0.490393 0)
(0.028316 0.142353 0.47847)
(0.023702 0.119156 -0.485016)
(0.097428 0.489802 -0.024534)
(0.032862 0.165208 0.470772)
(0.01903 0.095671 -0.490393)
(0.097075 0.488031 -0.049009)
(0.037329 0.187665 0.46194)
(0.014313 0.071956 -0.494588)
(0.096489 0.485085 -0.073365)
(0.041706 0.20967 0.451995)
(0.009561 0.048067 -0.497592)
(0.095671 0.48097 -0.097545)
(0.045982 0.231169 0.440961)
(0.004786 0.024062 -0.499398)
(0.094622 0.475696 -0.12149)
(0.050148 0.252112 0.428864)
(0.112242 0.448096 -0.191342)
(0.109826 0.438449 -0.213778)
(0.077073 0.307691 0.386505)
(0.081588 0.325717 0.370476)
(0.107145 0.427746 -0.235698)
(0.085906 0.342958 0.353553)
(0.104206 0.416012 -0.257051)
(0.090018 0.359373 0.335779)
(0.101015 0.403276 -0.277785)
(0.093913 0.374922 0.317197)
(0.097582 0.389568 -0.29785)
(0.097582 0.389568 0.29785)
(0.093913 0.374922 -0.317197)
(0.101015 0.403276 0.277785)
(0.090018 0.359373 -0.335779)
(0.104206 0.416012 0.257051)
(0.085906 0.342958 -0.353553)
(0.107145 0.427746 0.235698)
(0.081588 0.325717 -0.370476)
(0.109826 0.438449 0.213778)
(0.077073 0.307691 -0.386505)
(0.112242 0.448096 0.191342)
(0.072372 0.288923 -0.401604)
(0.114388 0.456664 0.168445)
(0.067496 0.26946 -0.415735)
(0.116259 0.464131 0.145142)
(0.062458 0.249348 -0.428864)
(0.117849 0.47048 0.12149)
(0.005961 0.023799 0.499398)
(0.05727 0.228635 -0.440961)
(0.119156 0.475696 0.097545)
(0.011908 0.04754 0.497592)
(0.051944 0.207371 -0.451995)
(0.120175 0.479766 0.073365)
(0.017826 0.071167 0.494588)
(0.046492 0.185607 -0.46194)
(0.120905 0.48268 0.049009)
(0.023702 0.094622 0.490393)
(0.040929 0.163397 -0.470772)
(0.121344 0.484431 0.024534)
(0.02952 0.117849 0.485016)
(0.035267 0.140793 -0.47847)
(0.12149 0.485016 0)
(0.035267 0.140793 0.47847)
(0.02952 0.117849 -0.485016)
(0.121344 0.484431 -0.024534)
(0.040929 0.163397 0.470772)
(0.023702 0.094622 -0.490393)
(0.120905 0.48268 -0.049009)
(0.046492 0.185607 0.46194)
(0.017826 0.071167 -0.494588)
(0.120175 0.479766 -0.073365)
(0.051944 0.207371 0.451995)
(0.011908 0.04754 -0.497592)
(0.119156 0.475696 -0.097545)
(0.05727 0.228635 0.440961)
(0.005961 0.023799 -0.499398)
(0.117849 0.47048 -0.12149)
(0.062458 0.249348 0.428864)
(0.116259 0.464131 -0.145142)
(0.067496 0.26946 0.415735)
(0.114388 0.456664 -0.168445)
(0.072372 0.288923 0.401604)
(0.128004 0.421973 -0.235698)
(0.124493 0.410398 -0.257051)
(0.102631 0.338329 0.353553)
(0.107543 0.354523 0.335779)
(0.120681 0.397833 -0.277785)
(0.112197 0.369862 0.317197)
(0.116579 0.384311 -0.29785)
(0.116579 0.384311 0.29785)
(0.112197 0.369862 -0.317197)
(0.120681 0.397833 0.277785)
(0.107543 0.354523 -0.335779)
(0.124493 0.410398 0.257051)
(0.102631 0.338329 -0.353553)
(0.128004 0.421973 0.235698)
(0.097472 0.321321 -0.370476)
(0.131207 0.432532 0.213778)
(0.092077 0.303538 -0.386505)
(0.134094 0.442049 0.191342)
(0.086461 0.285024 -0.401604)
(0.136658 0.450501 0.168445)
(0.080637 0.265824 -0.415735)
(0.138893 0.457867 0.145142)
(0.074618 0.245983 -0.428864)
(0.140793 0.464131 0.12149)
(0.007122 0.023477 0.499398)
(0.06842 0.225549 -0.440961)
(0.142353 0.469276 0.097545)
(0.014226 0.046898 0.497592)
(0.062056 0.204572 -0.451995)
(0.143571 0.473291 0.073365)
(0.021297 0.070206 0.494588)
(0.055544 0.183103 -0.46194)
(0.144443 0.476166 0.049009)
(0.028316 0.093345 0.490393)
(0.048897 0.161192 -0.470772)
(0.144967 0.477894 0.024534)
(0.035267 0.116259 0.485016)
(0.042133 0.138893 -0.47847)
(0.145142 0.47847 0)
(0.042133 0.138893 0.47847)
(0.035267 0.116259 -0.485016)
(0.144967 0.477894 -0.024534)
(0.048897 0.161192 0.470772)
(0.028316 0.093345 -0.490393)
(0.144443 0.476166 -0.049009)
(0.055544 0.183103 0.46194)
(0.021297 0.070206 -0.494588)
(0.143571 0.473291 -0.073365)
(0.062056 0.204572 0.451995)
(0.014226 0.046898 -0.497592)
(0.142353 0.469276 -0.097545)
(0.06842 0.225549 0.440961)
(0.007122 0.023477 -0.499398)
(0.140793 0.464131 -0.12149)
(0.074618 0.245983 0.428864)
(0.138893 0.457867 -0.145142)
(0.080637 0.265824 0.415735)
(0.136658 0.450501 -0.168445)
(0.086461 0.285024 0.401604)
(0.134094 0.442049 -0.191342)
(0.092077 0.303538 0.386505)
(0.131207 0.432532 -0.213778)
(0.097472 0.321321 0.370476)
(0.140057 0.391433 -0.277785)
(0.135296 0.378128 -0.29785)
(0.13021 0.363912 0.317197)
(0.135296 0.378128 0.29785)
(0.13021 0.363912 -0.317197)
(0.140057 0.391433 0.277785)
(0.124809 0.348819 -0.335779)
(0.14448 0.403795 0.257051)
(0.119109 0.332886 -0.353553)
(0.148555 0.415184 0.235698)
(0.113121 0.316151 -0.370476)
(0.152272 0.425573 0.213778)
(0.10686 0.298655 -0.386505)
(0.155623 0.434937 0.191342)
(0.100343 0.280439 -0.401604)
(0.158598 0.443253 0.168445)
(0.093583 0.261547 -0.415735)
(0.161192 0.450501 0.145142)
(0.086598 0.242025 -0.428864)
(0.163397 0.456664 0.12149)
(0.008265 0.0231 0.499398)
(0.079404 0.22192 -0.440961)
(0.165208 0.461726 0.097545)
(0.01651 0.046144 0.497592)
(0.072019 0.201281 -0.451995)
(0.166622 0.465677 0.073365)
(0.024716 0.069077 0.494588)
(0.064461 0.180157 -0.46194)
(0.167634 0.468505 0.049009)
(0.032862 0.091843 0.490393)
(0.056747 0.158598 -0.470772)
(0.168242 0.470205 0.024534)
(0.040929 0.114388 0.485016)
(0.048897 0.136658 -0.47847)
(0.168445 0.470772 0)
(0.048897 0.136658 0.47847)
(0.040929 0.114388 -0.485016)
(0.168242 0.470205 -0.024534)
(0.056747 0.158598 0.470772)
(0.032862 0.091843 -0.490393)
(0.167634 0.468505 -0.049009)
(0.064461 0.180157 0.46194)
(0.024716 0.069077 -0.494588)
(0.166622 0.465677 -0.073365)
(0.072019 0.201281 0.451995)
(0.01651 0.046144 -0.497592)
(0.165208 0.461726 -0.097545)
(0.079404 0.22192 0.440961)
(0.008265 0.0231 -0.499398)
(0.163397 0.456664 -0.12149)
(0.086598 0.242025 0.428864)
(0.161192 0.450501 -0.145142)
(0.093583 0.261547 0.415735)
(0.158598 0.443253 -0.168445)
(0.100343 0.280439 0.401604)
(0.155623 0.434937 -0.191342)
(0.10686 0.298655 0.386505)
(0.152272 0.425573 -0.213778)
(0.113121 0.316151 0.370476)
(0.148555 0.415184 -0.235698)
(0.119109 0.332886 0.353553)
(0.14448 0.403795 -0.257051)
(0.124809 0.348819 0.335779)
(0.147909 0.357084 -0.317197)
(0.141775 0.342275 -0.335779)
(0.159095 0.384089 0.277785)
(0.164119 0.396219 0.257051)
(0.135299 0.326641 -0.353553)
(0.168748 0.407394 0.235698)
(0.128497 0.31022 -0.370476)
(0.172971 0.417589 0.213778)
(0.121386 0.293052 -0.386505)
(0.176777 0.426777 0.191342)
(0.113982 0.275177 -0.401604)
(0.180157 0.434937 0.168445)
(0.106304 0.25664 -0.415735)
(0.183103 0.442049 0.145142)
(0.098369 0.237485 -0.428864)
(0.185607 0.448096 0.12149)
(0.009389 0.022666 0.499398)
(0.090198 0.217757 -0.440961)
(0.187665 0.453064 0.097545)
(0.018755 0.045278 0.497592)
(0.081809 0.197505 -0.451995)
(0.189271 0.45694 0.073365)
(0.028076 0.067781 0.494588)
(0.073223 0.176777 -0.46194)
(0.19042 0.459715 0.049009)
(0.037329 0.09012 0.490393)
(0.064461 0.155623 -0.470772)
(0.191111 0.461383 0.024534)
(0.046492 0.112242 0.485016)
(0.055544 0.134094 -0.47847)
(0.191342 0.46194 0)
(0.055544 0.134094 0.47847)
(0.046492 0.112242 -0.485016)
(0.191111 0.461383 -0.024534)
(0.064461 0.155623 0.470772)
(0.037329 0.09012 -0.490393)
(0.19042 0.459715 -0.049009)
(0.073223 0.176777 0.46194)
(0.028076 0.067781 -0.494588)
(0.189271 0.45694 -0.073365)
(0.081809 0.197505 0.451995)
(0.018755 0.045278 -0.497592)
(0.187665 0.453064 -0.097545)
(0.090198 0.217757 0.440961)
(0.009389 0.022666 -0.499398)
(0.185607 0.448096 -0.12149)
(0.098369 0.237485 0.428864)
(0.183103 0.442049 -0.145142)
(0.106304 0.25664 0.415735)
(0.180157 0.434937 -0.168445)
(0.113982 0.275177 0.401604)
(0.176777 0.426777 -0.191342)
(0.121386 0.293052 0.386505)
(0.172971 0.417589 -0.213778)
(0.128497 0.31022 0.370476)
(0.168748 0.407394 -0.235698)
(0.135299 0.326641 0.353553)
(0.164119 0.396219 -0.257051)
(0.141775 0.342275 0.335779)
(0.159095 0.384089 -0.277785)
(0.147909 0.357084 0.317197)
(0.153687 0.371034 -0.29785)
(0.153687 0.371034 0.29785)
(0.151164 0.319608 -0.353553)
(0.143564 0.303541 -0.370476)
(0.188535 0.398624 0.235698)
(0.193253 0.408598 0.213778)
(0.135619 0.286742 -0.386505)
(0.197505 0.417589 0.191342)
(0.127347 0.269253 -0.401604)
(0.201281 0.425573 0.168445)
(0.118768 0.251115 -0.415735)
(0.204572 0.432532 0.145142)
(0.109904 0.232372 -0.428864)
(0.207371 0.438449 0.12149)
(0.01049 0.022178 0.499398)
(0.100774 0.213069 -0.440961)
(0.20967 0.44331 0.097545)
(0.020954 0.044303 0.497592)
(0.091402 0.193253 -0.451995)
(0.211464 0.447102 0.073365)
(0.031368 0.066321 0.494588)
(0.081809 0.172971 -0.46194)
(0.212748 0.449818 0.049009)
(0.041706 0.08818 0.490393)
(0.072019 0.152272 -0.470772)
(0.21352 0.45145 0.024534)
(0.051944 0.109826 0.485016)
(0.062056 0.131207 -0.47847)
(0.213778 0.451995 0)
(0.062056 0.131207 0.47847)
(0.051944 0.109826 -0.485016)
(0.21352 0.45145 -0.024534)
(0.072019 0.152272 0.470772)
(0.041706 0.08818 -0.490393)
(0.212748 0.449818 -0.049009)
(0.081809 0.172971 0.46194)
(0.031368 0.066321 -0.494588)
(0.211464 0.447102 -0.073365)
(0.091402 0.193253 0.451995)
(0.020954 0.044303 -0.497592)
(0.20967 0.44331 -0.097545)
(0.100774 0.213069 0.440961)
(0.01049 0.022178 -0.499398)
(0.207371 0.438449 -0.12149)
(0.109904 0.232372 0.428864)
(0.204572 0.432532 -0.145142)
(0.118768 0.251115 0.415735)
(0.201281 0.425573 -0.168445)
(0.127347 0.269253 0.401604)
(0.197505 0.417589 -0.191342)
(0.135619 0.286742 0.386505)
(0.193253 0.408598 -0.213778)
(0.143564 0.303541 0.370476)
(0.188535 0.398624 -0.235698)
(0.151164 0.319608 0.353553)
(0.183363 0.387689 -0.257051)
(0.158399 0.334906 0.335779)
(0.17775 0.37582 -0.277785)
(0.165252 0.349396 0.317197)
(0.171708 0.363046 -0.29785)
(0.171708 0.363046 0.29785)
(0.165252 0.349396 -0.317197)
(0.17775 0.37582 0.277785)
(0.158399 0.334906 -0.335779)
(0.183363 0.387689 0.257051)
(0.149525 0.279742 -0.386505)
(0.140405 0.26268 -0.401604)
(0.217757 0.407394 0.191342)
(0.22192 0.415184 0.168445)
(0.130947 0.244985 -0.415735)
(0.225549 0.421973 0.145142)
(0.121173 0.226699 -0.428864)
(0.228635 0.427746 0.12149)
(0.011565 0.021637 0.499398)
(0.111107 0.207867 -0.440961)
(0.231169 0.432488 0.097545)
(0.023102 0.043222 0.497592)
(0.100774 0.188535 -0.451995)
(0.233147 0.436188 0.073365)
(0.034584 0.064702 0.494588)
(0.090198 0.168748 -0.46194)
(0.234563 0.438837 0.049009)
(0.045982 0.086027 0.490393)
(0.079404 0.148555 -0.470772)
(0.235414 0.440429 0.024534)
(0.05727 0.107145 0.485016)
(0.06842 0.128004 -0.47847)
(0.235698 0.440961 0)
(0.06842 0.128004 0.47847)
(0.05727 0.107145 -0.485016)
(0.235414 0.440429 -0.024534)
(0.079404 0.148555 0.470772)
(0.045982 0.086027 -0.490393)
(0.234563 0.438837 -0.049009)
(0.090198 0.168748 0.46194)
(0.034584 0.064702 -0.494588)
(0.233147 0.436188 -0.073365)
(0.100774 0.188535 0.451995)
(0.023102 0.043222 -0.497592)
(0.231169 0.432488 -0.097545)
(0.111107 0.207867 0.440961)
(0.011565 0.021637 -0.499398)
(0.228635 0.427746 -0.12149)
(0.121173 0.226699 0.428864)
(0.225549 0.421973 -0.145142)
(0.130947 0.244985 0.415735)
(0.22192 0.415184 -0.168445)
(0.140405 0.26268 0.401604)
(0.217757 0.407394 -0.191342)
(0.149525 0.279742 0.386505)
(0.213069 0.398624 -0.213778)
(0.158285 0.296131 0.370476)
(0.207867 0.388893 -0.235698)
(0.166664 0.311806 0.353553)
(0.202165 0.378225 -0.257051)
(0.174641 0.32673 0.335779)
(0.195976 0.366645 -0.277785)
(0.182197 0.340867 0.317197)
(0.189315 0.354183 -0.29785)
(0.189315 0.354183 0.29785)
(0.182197 0.340867 -0.317197)
(0.195976 0.366645 0.277785)
(0.174641 0.32673 -0.335779)
(0.202165 0.378225 0.257051)
(0.166664 0.311806 -0.353553)
(0.207867 0.388893 0.235698)
(0.158285 0.296131 -0.370476)
(0.213069 0.398624 0.213778)
(0.14281 0.238264 -0.415735)
(0.132151 0.22048 -0.428864)
(0.245983 0.410398 0.145142)
(0.249348 0.416012 0.12149)
(0.012613 0.021043 0.499398)
(0.121173 0.202165 -0.440961)
(0.252112 0.420624 0.097545)
(0.025195 0.042036 0.497592)
(0.109904 0.183363 -0.451995)
(0.254269 0.424222 0.073365)
(0.037717 0.062927 0.494588)
(0.098369 0.164119 -0.46194)
(0.255814 0.426799 0.049009)
(0.050148 0.083667 0.490393)
(0.086598 0.14448 -0.470772)
(0.256742 0.428348 0.024534)
(0.062458 0.104206 0.485016)
(0.074618 0.124493 -0.47847)
(0.257051 0.428864 0)
(0.074618 0.124493 0.47847)
(0.062458 0.104206 -0.485016)
(0.256742 0.428348 -0.024534)
(0.086598 0.14448 0.470772)
(0.050148 0.083667 -0.490393)
(0.255814 0.426799 -0.049009)
(0.098369 0.164119 0.46194)
(0.037717 0.062927 -0.494588)
(0.254269 0.424222 -0.073365)
(0.109904 0.183363 0.451995)
(0.025195 0.042036 -0.497592)
(0.252112 0.420624 -0.097545)
(0.121173 0.202165 0.440961)
(0.012613 0.021043 -0.499398)
(0.249348 0.416012 -0.12149)
(0.132151 0.22048 0.428864)
(0.245983 0.410398 -0.145142)
(0.14281 0.238264 0.415735)
(0.242025 0.403795 -0.168445)
(0.153125 0.255474 0.401604)
(0.237484 0.396219 -0.191342)
(0.163072 0.272069 0.386505)
(0.232372 0.387689 -0.213778)
(0.172625 0.288008 0.370476)
(0.226699 0.378224 -0.235698)
(0.181763 0.303253 0.353553)
(0.22048 0.367849 -0.257051)
(0.190462 0.317767 0.335779)
(0.21373 0.356588 -0.277785)
(0.198703 0.331516 0.317197)
(0.206466 0.344467 -0.29785)
(0.206466 0.344467 0.29785)
(0.198703 0.331516 -0.317197)
(0.21373 0.356588 0.277785)
(0.190462 0.317767 -0.335779)
(0.22048 0.367849 0.257051)
(0.181763 0.303253 -0.353553)
(0.226699 0.378224 0.235698)
(0.172625 0.288008 -0.370476)
(0.232372 0.387689 0.213778)
(0.163072 0.272069 -0.386505)
(0.237484 0.396219 0.191342)
(0.153125 0.255474 -0.401604)
(0.242025 0.403795 0.168445)
(0.130947 0.195976 -0.440961)
(0.118768 0.17775 -0.451995)
(0.272448 0.407747 0.097545)
(0.274779 0.411235 0.073365)
(0.027228 0.040749 0.497592)
(0.04076 0.061001 0.494588)
(0.106304 0.159095 -0.46194)
(0.276447 0.413733 0.049009)
(0.054193 0.081106 0.490393)
(0.093583 0.140057 -0.470772)
(0.27745 0.415234 0.024534)
(0.067496 0.101015 0.485016)
(0.080637 0.120681 -0.47847)
(0.277785 0.415735 0)
(0.080637 0.120681 0.47847)
(0.067496 0.101015 -0.485016)
(0.27745 0.415234 -0.024534)
(0.093583 0.140057 0.470772)
(0.054193 0.081106 -0.490393)
(0.276447 0.413733 -0.049009)
(0.106304 0.159095 0.46194)
(0.04076 0.061001 -0.494588)
(0.274779 0.411235 -0.073365)
(0.118768 0.17775 0.451995)
(0.027228 0.040749 -0.497592)
(0.272448 0.407747 -0.097545)
(0.130947 0.195976 0.440961)
(0.01363 0.020399 -0.499398)
(0.26946 0.403276 -0.12149)
(0.14281 0.21373 0.428864)
(0.265824 0.397833 -0.145142)
(0.154329 0.23097 0.415735)
(0.261547 0.391433 -0.168445)
(0.165476 0.247653 0.401604)
(0.25664 0.384089 -0.191342)
(0.176225 0.263739 0.386505)
(0.251115 0.37582 -0.213778)
(0.186549 0.27919 0.370476)
(0.244985 0.366645 -0.235698)
(0.196424 0.293969 0.353553)
(0.238264 0.356588 -0.257051)
(0.205825 0.308039 0.335779)
(0.23097 0.345671 -0.277785)
(0.214731 0.321367 0.317197)
(0.223119 0.333921 -0.29785)
(0.223119 0.333921 0.29785)
(0.214731 0.321367 -0.317197)
(0.23097 0.345671 0.277785)
(0.205825 0.308039 -0.335779)
(0.238264 0.356588 0.257051)
(0.196424 0.293969 -0.353553)
(0.244985 0.366645 0.235698)
(0.186549 0.27919 -0.370476)
(0.251115 0.37582 0.213778)
(0.176225 0.263739 -0.386505)
(0.25664 0.384089 0.191342)
(0.165476 0.247653 -0.401604)
(0.261547 0.391433 0.168445)
(0.154329 0.23097 -0.415735)
(0.265824 0.397833 0.145142)
(0.14281 0.21373 -0.428864)
(0.26946 0.403276 0.12149)
(0.01363 0.020399 0.499398)
(0.113982 0.153687 -0.46194)
(0.100343 0.135296 -0.470772)
(0.296415 0.39967 0.049009)
(0.297491 0.40112 0.024534)
(0.058108 0.078349 0.490393)
(0.072372 0.097582 0.485016)
(0.086461 0.116579 -0.47847)
(0.29785 0.401604 0)
(0.086461 0.116579 0.47847)
(0.072372 0.097582 -0.485016)
(0.297491 0.40112 -0.024534)
(0.100343 0.135296 0.470772)
(0.058108 0.078349 -0.490393)
(0.296415 0.39967 -0.049009)
(0.113982 0.153687 0.46194)
(0.043704 0.058928 -0.494588)
(0.294626 0.397257 -0.073365)
(0.127347 0.171708 0.451995)
(0.029194 0.039364 -0.497592)
(0.292127 0.393887 -0.097545)
(0.140405 0.189315 0.440961)
(0.014615 0.019706 -0.499398)
(0.288924 0.389568 -0.12149)
(0.153125 0.206466 0.428864)
(0.285024 0.384311 -0.145142)
(0.165476 0.223119 0.415735)
(0.280439 0.378128 -0.168445)
(0.177429 0.239235 0.401604)
(0.275177 0.371033 -0.191342)
(0.188954 0.254775 0.386505)
(0.269253 0.363045 -0.213778)
(0.200024 0.269701 0.370476)
(0.26268 0.354183 -0.235698)
(0.210611 0.283977 0.353553)
(0.255474 0.344467 -0.257051)
(0.220692 0.297569 0.335779)
(0.247653 0.333921 -0.277785)
(0.230241 0.310444 0.317197)
(0.239235 0.322571 -0.29785)
(0.239235 0.322571 0.29785)
(0.230241 0.310444 -0.317197)
(0.247653 0.333921 0.277785)
(0.220692 0.297569 -0.335779)
(0.255474 0.344467 0.257051)
(0.210611 0.283977 -0.353553)
(0.26268 0.354183 0.235698)
(0.200024 0.269701 -0.370476)
(0.269253 0.363045 0.213778)
(0.188954 0.254775 -0.386505)
(0.275177 0.371033 0.191342)
(0.177429 0.239235 -0.401604)
(0.280439 0.378128 0.168445)
(0.165476 0.223119 -0.415735)
(0.285024 0.384311 0.145142)
(0.153125 0.206466 -0.428864)
(0.288924 0.389568 0.12149)
(0.014615 0.019706 0.499398)
(0.140405 0.189315 -0.440961)
(0.292127 0.393887 0.097545)
(0.029194 0.039364 0.497592)
(0.127347 0.171708 -0.451995)
(0.294626 0.397257 0.073365)
(0.043704 0.058928 0.494588)
(0.317197 0.386505 0)
(0.316815 0.38604 -0.024534)
(0.092077 0.112196 0.47847)
(0.10686 0.13021 0.470772)
(0.077073 0.093913 -0.485016)
(0.061882 0.075403 -0.490393)
(0.315669 0.384644 -0.049009)
(0.121386 0.147909 0.46194)
(0.046542 0.056712 -0.494588)
(0.313763 0.382322 -0.073365)
(0.135619 0.165252 0.451995)
(0.031091 0.037884 -0.497592)
(0.311102 0.379079 -0.097545)
(0.149525 0.182197 0.440961)
(0.015564 0.018965 -0.499398)
(0.307691 0.374922 -0.12149)
(0.163072 0.198703 0.428864)
(0.303538 0.369862 -0.145142)
(0.176225 0.214731 0.415735)
(0.298655 0.363912 -0.168445)
(0.188954 0.230241 0.401604)
(0.293051 0.357084 -0.191342)
(0.201227 0.245196 0.386505)
(0.286742 0.349396 -0.213778)
(0.213016 0.259561 0.370476)
(0.279742 0.340867 -0.235698)
(0.224292 0.2733 0.353553)
(0.272069 0.331517 -0.257051)
(0.235027 0.286381 0.335779)
(0.263739 0.321367 -0.277785)
(0.245196 0.298772 0.317197)
(0.254775 0.310444 -0.29785)
(0.254775 0.310444 0.29785)
(0.245196 0.298772 -0.317197)
(0.263739 0.321367 0.277785)
(0.235027 0.286381 -0.335779)
(0.272069 0.331517 0.257051)
(0.224292 0.2733 -0.353553)
(0.279742 0.340867 0.235698)
(0.213016 0.259561 -0.370476)
(0.286742 0.349396 0.213778)
(0.201227 0.245196 -0.386505)
(0.293051 0.357084 0.191342)
(0.188954 0.230241 -0.401604)
(0.298655 0.363912 0.168445)
(0.176225 0.214731 -0.415735)
(0.303538 0.369862 0.145142)
(0.163072 0.198703 -0.428864)
(0.307691 0.374922 0.12149)
(0.015564 0.018965 0.499398)
(0.149525 0.182197 -0.440961)
(0.311102 0.379079 0.097545)
(0.031091 0.037884 0.497592)
(0.135619 0.165252 -0.451995)
(0.313763 0.382322 0.073365)
(0.046542 0.056712 0.494588)
(0.121386 0.147909 -0.46194)
(0.315669 0.384644 0.049009)
(0.061882 0.075403 0.490393)
(0.10686 0.13021 -0.470772)
(0.316815 0.38604 0.024534)
(0.077073 0.093913 0.485016)
(0.092077 0.112196 -0.47847)
(0.334163 0.368692 -0.049009)
(0.332145 0.366466 -0.073365)
(0.128497 0.141775 0.46194)
(0.143564 0.158399 0.451995)
(0.049269 0.05436 -0.494588)
(0.032912 0.036313 -0.497592)
(0.329328 0.363357 -0.097545)
(0.158285 0.174641 0.440961)
(0.016476 0.018178 -0.499398)
(0.325717 0.359373 -0.12149)
(0.172625 0.190463 0.428864)
(0.321321 0.354523 -0.145142)
(0.186549 0.205825 0.415735)
(0.316151 0.348819 -0.168445)
(0.200024 0.220692 0.401604)
(0.31022 0.342275 -0.191342)
(0.213016 0.235027 0.386505)
(0.303541 0.334906 -0.213778)
(0.225496 0.248796 0.370476)
(0.296131 0.32673 -0.235698)
(0.237432 0.261966 0.353553)
(0.288008 0.317767 -0.257051)
(0.248796 0.274504 0.335779)
(0.27919 0.308039 -0.277785)
(0.259561 0.286381 0.317197)
(0.269701 0.297569 -0.29785)
(0.269701 0.297569 0.29785)
(0.259561 0.286381 -0.317197)
(0.27919 0.308039 0.277785)
(0.248796 0.274504 -0.335779)
(0.288008 0.317767 0.257051)
(0.237432 0.261966 -0.353553)
(0.296131 0.32673 0.235698)
(0.225496 0.248796 -0.370476)
(0.303541 0.334906 0.213778)
(0.213016 0.235027 -0.386505)
(0.31022 0.342275 0.191342)
(0.200024 0.220692 -0.401604)
(0.316151 0.348819 0.168445)
(0.186549 0.205825 -0.415735)
(0.321321 0.354523 0.145142)
(0.172625 0.190463 -0.428864)
(0.325717 0.359373 0.12149)
(0.016476 0.018178 0.499398)
(0.158285 0.174641 -0.440961)
(0.329328 0.363357 0.097545)
(0.032912 0.036313 0.497592)
(0.143564 0.158399 -0.451995)
(0.332145 0.366466 0.073365)
(0.049269 0.05436 0.494588)
(0.128497 0.141775 -0.46194)
(0.334163 0.368692 0.049009)
(0.065507 0.072276 0.490393)
(0.113121 0.124809 -0.470772)
(0.335375 0.370029 0.024534)
(0.081588 0.090018 0.485016)
(0.097472 0.107543 -0.47847)
(0.335779 0.370475 0)
(0.097472 0.107543 0.47847)
(0.081588 0.090018 -0.485016)
(0.335375 0.370029 -0.024534)
(0.113121 0.124809 0.470772)
(0.065507 0.072276 -0.490393)
(0.34676 0.34676 -0.097545)
(0.342958 0.342958 -0.12149)
(0.166664 0.166664 0.440961)
(0.181763 0.181763 0.428864)
(0.017348 0.017348 -0.499398)
(0.33833 0.338329 -0.145142)
(0.196424 0.196424 0.415735)