/*--------------------------------*- C++ -*----------------------------------*\
| =========                 |                                                 |
| \\      /  F ield         | OpenFOAM: The Open Source CFD Toolbox           |
|  \\    /   O peration     | Version:  2212                                  |
|   \\  /    A nd           | Website:  www.openfoam.com                      |
|    \\/     M anipulation  |                                                 |
\*---------------------------------------------------------------------------*/
FoamFile
{
    version     2.0;
    format      ascii;
    arch        "LSB;label=32;scalar=64";
    class       extendedFeatureEdgeMesh;
    location    "constant/extendedFeatureEdgeMesh";
    object      wall1.extendedFeatureEdgeMesh;
}
// * * * * * * * * * * * * * * * * * * * * * * * * * * * * * * * * * * * * * //

// points
8((-10 10 -10) (-10 10 10) (10 10 10) (10 10 -10) (10 -10 -10) (10 -10 10) (-10 -10 10) (-10 -10 -10))
// edges

12
(
(1 2)
(3 0)
(5 6)
(7 4)
(0 1)
(2 3)
(4 5)
(6 7)
(3 4)
(7 0)
(1 6)
(5 2)
)

// concaveStart mixedStart nonFeatureStart
0 0 8
// internalStart flatStart openStart multipleStart
4 4 4 12
// normals
8((0 1 0) (0 1 0) (0 -1 0) (0 -1 0) (0 0 -1) (0 0 -1) (0 0 1) (0 0 1))
// normal volume types

8
(
0
0
0
0
0
0
0
0
)

// normalDirections

12
(
2(1 -1)
2(1 -1)
2(1 -1)
2(1 -1)
1(1)
1(1)
1(1)
1(1)
1(1)
1(1)
1(1)
1(1)
)

// edgeNormals

12
(
2(0 6)
2(1 4)
2(2 7)
2(3 5)
1(0)
1(1)
1(2)
1(3)
1(4)
1(5)
1(6)
1(7)
)

// featurePointNormals

8
(
2(1 4)
2(0 6)
2(0 6)
2(1 4)
2(3 5)
2(2 7)
2(2 7)
2(3 5)
)

// featurePointEdges

8
(
3(1 4 9)
3(0 4 10)
3(0 5 11)
3(1 5 8)
3(3 6 8)
3(2 6 11)
3(2 7 10)
3(3 7 9)
)

// regionEdges
8(4 5 6 7 8 9 10 11)


// ************************************************************************* //
