/*--------------------------------*- C++ -*----------------------------------*\
| =========                 |                                                 |
| \\      /  F ield         | OpenFOAM: The Open Source CFD Toolbox           |
|  \\    /   O peration     | Version:                                        |
|   \\  /    A nd           | Web:      www.openfoam.com; www.openfoam.org    |
|    \\/     M anipulation  |                                                 |
\*---------------------------------------------------------------------------*/
FoamFile
{
    version     2.0;
    format      ascii;
    class       dictionary;
    object      blockMeshDict;
}
// * * * * * * * * * * * * * * * * * * * * * * * * * * * * * * * * * * * * * //

scale 1;

x_min -10;
x_max  10;

y_min -10;
y_max  10;

z_min -10;
z_max  10;

n_x 30;
n_y 30;
n_z 30;

vertices
(
    ($x_min $y_min $z_min)
    ($x_max $y_min $z_min)
    ($x_max $y_max $z_min)
    ($x_min $y_max $z_min)
    ($x_min $y_min $z_max)
    ($x_max $y_min $z_max)
    ($x_max $y_max $z_max)
    ($x_min $y_max $z_max)
);

blocks ( hex (0 1 2 3 4 5 6 7) ($n_x $n_y $n_z) simpleGrading (1 1 1) );

edges ( );

boundary (
    wall1
    {
        type wall;
        faces
        (
            //(1 5 4 0)
            (0 4 7 3)
            (2 6 5 1)
            (0 3 2 1)
            (4 5 6 7)
            //(3 7 6 2)
        );
    }
	outlet1
	{
		type patch;
		faces
		(
			(1 5 4 0)
		);
	}
	inlet1
	{
		type patch;
		faces
		(
			(3 7 6 2)
		);
	}
);

mergePatchPairs ( );


// ************************************************************************* //
